*SPEF "ieee 1481-1999"
*DESIGN "sync_fifo"
*DATE "11:36:09 Tuesday June 30, 2026"
*VENDOR "The OpenROAD Project"
*PROGRAM "OpenROAD"
*VERSION "26Q2-2466-gd1f7a8dec3"
*DESIGN_FLOW "NAME_SCOPE LOCAL" "PIN_CAP NONE"
*DIVIDER /
*DELIMITER :
*BUS_DELIMITER []
*T_UNIT 1 NS
*C_UNIT 1 PF
*R_UNIT 1 OHM
*L_UNIT 1 HENRY

*NAME_MAP
*1 _0000_
*2 _0001_
*3 _0002_
*4 _0003_
*5 _0004_
*6 _0005_
*7 _0006_
*8 _0007_
*9 _0008_
*10 _0009_
*11 _0010_
*12 _0011_
*13 _0012_
*14 _0013_
*15 _0014_
*16 _0015_
*17 _0016_
*18 _0017_
*19 _0018_
*20 _0019_
*21 _0020_
*22 _0021_
*23 _0022_
*24 _0023_
*25 _0024_
*26 _0025_
*27 _0026_
*28 _0027_
*29 _0028_
*30 _0029_
*31 _0030_
*32 _0031_
*33 _0032_
*34 _0033_
*35 _0034_
*36 _0035_
*37 _0036_
*38 _0037_
*39 _0038_
*40 _0039_
*41 _0040_
*42 _0041_
*43 _0042_
*44 _0043_
*45 _0044_
*46 _0045_
*47 _0046_
*48 _0047_
*49 _0048_
*50 _0049_
*51 _0050_
*52 _0051_
*53 _0052_
*54 _0053_
*55 _0054_
*56 _0055_
*57 _0056_
*58 _0057_
*59 _0058_
*60 _0059_
*61 _0060_
*62 _0061_
*63 _0062_
*64 _0063_
*65 _0064_
*66 _0065_
*67 _0066_
*68 _0067_
*69 _0068_
*70 _0069_
*71 _0070_
*72 _0071_
*73 _0072_
*74 _0073_
*75 _0074_
*76 _0075_
*77 _0076_
*78 _0077_
*79 _0078_
*80 _0079_
*81 _0080_
*82 _0081_
*83 _0082_
*84 _0083_
*85 _0084_
*86 _0085_
*87 _0086_
*88 _0087_
*89 _0088_
*90 _0089_
*91 _0090_
*92 _0091_
*93 _0092_
*94 _0093_
*95 _0094_
*96 _0095_
*97 _0096_
*98 _0097_
*99 _0098_
*100 _0099_
*101 _0100_
*102 _0101_
*103 _0102_
*104 _0103_
*105 _0104_
*106 _0105_
*107 _0106_
*108 _0107_
*109 _0108_
*110 _0109_
*111 _0110_
*112 _0111_
*113 _0112_
*114 _0113_
*115 _0114_
*116 _0115_
*117 _0116_
*118 _0117_
*119 _0118_
*120 _0119_
*121 _0120_
*122 _0121_
*123 _0122_
*124 _0123_
*125 _0124_
*126 _0125_
*127 _0126_
*128 _0127_
*129 _0128_
*130 _0129_
*131 _0130_
*132 _0131_
*133 _0132_
*134 _0133_
*135 _0134_
*136 _0135_
*137 _0136_
*138 _0137_
*139 _0138_
*140 _0139_
*141 _0140_
*142 _0141_
*143 _0142_
*144 _0143_
*145 _0144_
*146 _0145_
*147 _0146_
*148 _0147_
*149 _0148_
*150 _0149_
*151 _0150_
*152 _0151_
*153 _0152_
*154 _0153_
*155 _0154_
*156 _0155_
*157 _0156_
*158 _0157_
*159 _0158_
*160 _0159_
*161 _0160_
*162 _0161_
*163 _0162_
*164 _0163_
*165 _0164_
*166 _0165_
*167 _0166_
*168 _0167_
*169 _0168_
*170 _0169_
*171 _0170_
*172 _0171_
*173 _0172_
*174 _0173_
*175 _0174_
*176 _0175_
*177 _0176_
*178 _0177_
*179 _0178_
*180 _0179_
*181 _0180_
*182 _0181_
*183 _0182_
*184 _0183_
*185 _0184_
*186 _0185_
*187 _0186_
*188 _0187_
*189 _0188_
*190 _0189_
*191 _0190_
*192 _0191_
*193 _0192_
*194 _0193_
*195 _0194_
*196 _0195_
*197 _0196_
*198 _0197_
*199 _0198_
*200 _0199_
*201 _0200_
*202 _0201_
*203 _0202_
*204 _0203_
*205 _0204_
*206 _0205_
*207 _0206_
*208 _0207_
*209 _0208_
*210 _0209_
*211 _0210_
*212 _0211_
*213 _0212_
*214 _0213_
*215 _0214_
*216 _0215_
*217 _0216_
*218 _0217_
*219 _0218_
*220 _0219_
*221 _0220_
*222 _0221_
*223 _0222_
*224 _0223_
*225 _0224_
*226 _0225_
*227 _0226_
*228 _0227_
*229 _0228_
*230 _0229_
*231 _0230_
*232 _0231_
*233 _0232_
*234 _0233_
*235 _0234_
*236 _0235_
*237 _0236_
*238 _0237_
*239 _0238_
*240 _0239_
*241 _0240_
*242 _0241_
*243 _0242_
*244 _0243_
*245 _0244_
*246 _0245_
*247 _0246_
*248 _0247_
*249 _0248_
*250 _0249_
*251 _0250_
*252 _0251_
*253 _0252_
*254 _0253_
*255 _0254_
*256 _0255_
*257 _0256_
*258 _0257_
*259 _0258_
*260 _0259_
*261 _0260_
*262 _0261_
*263 _0262_
*264 _0263_
*265 _0264_
*266 _0265_
*267 _0266_
*268 _0267_
*269 _0268_
*270 _0269_
*271 _0270_
*272 _0271_
*273 _0272_
*274 _0273_
*275 _0274_
*276 _0275_
*277 _0276_
*278 _0277_
*279 _0278_
*280 _0279_
*281 _0280_
*282 _0281_
*283 _0282_
*284 _0283_
*285 _0284_
*286 _0285_
*287 _0286_
*288 _0287_
*289 _0288_
*290 _0289_
*291 _0290_
*292 _0291_
*293 _0292_
*294 _0293_
*295 _0294_
*296 _0295_
*297 _0296_
*298 _0297_
*299 _0298_
*300 _0299_
*301 _0300_
*302 _0301_
*303 _0302_
*304 _0303_
*305 _0304_
*306 _0305_
*307 _0306_
*308 _0307_
*309 _0308_
*310 _0309_
*311 _0310_
*312 _0311_
*313 _0312_
*314 _0313_
*315 _0314_
*316 _0315_
*317 _0316_
*318 _0317_
*319 _0318_
*320 _0319_
*321 _0320_
*322 _0321_
*323 _0322_
*324 _0323_
*325 _0324_
*326 _0325_
*327 _0326_
*328 _0327_
*329 _0328_
*330 _0329_
*331 _0330_
*332 _0331_
*333 _0332_
*334 _0333_
*335 _0334_
*336 _0335_
*337 _0336_
*338 _0337_
*339 _0338_
*340 _0339_
*341 _0340_
*342 _0341_
*343 _0342_
*344 _0343_
*345 _0344_
*346 _0345_
*347 _0346_
*348 _0347_
*349 _0348_
*350 _0349_
*351 _0350_
*352 _0351_
*353 _0352_
*354 _0353_
*355 _0354_
*356 _0355_
*357 _0356_
*358 _0357_
*359 _0358_
*360 _0359_
*361 _0360_
*362 _0361_
*363 _0362_
*364 _0363_
*365 _0364_
*366 _0365_
*367 _0366_
*368 _0367_
*369 _0368_
*370 _0369_
*371 _0370_
*372 _0371_
*373 _0372_
*374 _0373_
*375 _0374_
*376 _0375_
*377 _0376_
*378 _0377_
*379 _0378_
*380 _0379_
*381 _0380_
*382 _0381_
*383 _0382_
*384 _0383_
*385 _0384_
*386 _0385_
*387 _0386_
*388 _0387_
*389 _0388_
*390 _0389_
*391 _0390_
*392 _0391_
*393 _0392_
*394 _0393_
*395 _0394_
*396 _0395_
*397 _0396_
*398 _0397_
*399 _0398_
*400 _0399_
*401 _0400_
*402 _0401_
*403 _0402_
*404 _0403_
*405 _0404_
*406 _0405_
*407 _0406_
*408 _0407_
*409 _0408_
*410 _0409_
*411 _0410_
*412 _0411_
*413 _0412_
*414 _0413_
*415 _0414_
*416 _0415_
*417 _0416_
*418 _0417_
*419 _0418_
*420 _0419_
*421 _0420_
*422 _0421_
*423 _0422_
*424 _0423_
*425 _0424_
*426 clk
*591 clknet_0_clk
*592 clknet_4_0_0_clk
*602 clknet_4_10_0_clk
*603 clknet_4_11_0_clk
*604 clknet_4_12_0_clk
*605 clknet_4_13_0_clk
*606 clknet_4_14_0_clk
*607 clknet_4_15_0_clk
*593 clknet_4_1_0_clk
*594 clknet_4_2_0_clk
*595 clknet_4_3_0_clk
*596 clknet_4_4_0_clk
*597 clknet_4_5_0_clk
*598 clknet_4_6_0_clk
*599 clknet_4_7_0_clk
*600 clknet_4_8_0_clk
*601 clknet_4_9_0_clk
*427 count\[0\]
*428 count\[1\]
*429 count\[2\]
*430 count\[3\]
*431 count\[4\]
*432 data_in[0]
*433 data_in[1]
*434 data_in[2]
*435 data_in[3]
*436 data_in[4]
*437 data_in[5]
*438 data_in[6]
*439 data_in[7]
*440 data_out[0]
*441 data_out[1]
*442 data_out[2]
*443 data_out[3]
*444 data_out[4]
*445 data_out[5]
*446 data_out[6]
*447 data_out[7]
*448 empty
*449 full
*450 mem\[0\]\[0\]
*451 mem\[0\]\[1\]
*452 mem\[0\]\[2\]
*453 mem\[0\]\[3\]
*454 mem\[0\]\[4\]
*455 mem\[0\]\[5\]
*456 mem\[0\]\[6\]
*457 mem\[0\]\[7\]
*458 mem\[10\]\[0\]
*459 mem\[10\]\[1\]
*460 mem\[10\]\[2\]
*461 mem\[10\]\[3\]
*462 mem\[10\]\[4\]
*463 mem\[10\]\[5\]
*464 mem\[10\]\[6\]
*465 mem\[10\]\[7\]
*466 mem\[11\]\[0\]
*467 mem\[11\]\[1\]
*468 mem\[11\]\[2\]
*469 mem\[11\]\[3\]
*470 mem\[11\]\[4\]
*471 mem\[11\]\[5\]
*472 mem\[11\]\[6\]
*473 mem\[11\]\[7\]
*474 mem\[12\]\[0\]
*475 mem\[12\]\[1\]
*476 mem\[12\]\[2\]
*477 mem\[12\]\[3\]
*478 mem\[12\]\[4\]
*479 mem\[12\]\[5\]
*480 mem\[12\]\[6\]
*481 mem\[12\]\[7\]
*482 mem\[13\]\[0\]
*483 mem\[13\]\[1\]
*484 mem\[13\]\[2\]
*485 mem\[13\]\[3\]
*486 mem\[13\]\[4\]
*487 mem\[13\]\[5\]
*488 mem\[13\]\[6\]
*489 mem\[13\]\[7\]
*490 mem\[14\]\[0\]
*491 mem\[14\]\[1\]
*492 mem\[14\]\[2\]
*493 mem\[14\]\[3\]
*494 mem\[14\]\[4\]
*495 mem\[14\]\[5\]
*496 mem\[14\]\[6\]
*497 mem\[14\]\[7\]
*498 mem\[15\]\[0\]
*499 mem\[15\]\[1\]
*500 mem\[15\]\[2\]
*501 mem\[15\]\[3\]
*502 mem\[15\]\[4\]
*503 mem\[15\]\[5\]
*504 mem\[15\]\[6\]
*505 mem\[15\]\[7\]
*506 mem\[1\]\[0\]
*507 mem\[1\]\[1\]
*508 mem\[1\]\[2\]
*509 mem\[1\]\[3\]
*510 mem\[1\]\[4\]
*511 mem\[1\]\[5\]
*512 mem\[1\]\[6\]
*513 mem\[1\]\[7\]
*514 mem\[2\]\[0\]
*515 mem\[2\]\[1\]
*516 mem\[2\]\[2\]
*517 mem\[2\]\[3\]
*518 mem\[2\]\[4\]
*519 mem\[2\]\[5\]
*520 mem\[2\]\[6\]
*521 mem\[2\]\[7\]
*522 mem\[3\]\[0\]
*523 mem\[3\]\[1\]
*524 mem\[3\]\[2\]
*525 mem\[3\]\[3\]
*526 mem\[3\]\[4\]
*527 mem\[3\]\[5\]
*528 mem\[3\]\[6\]
*529 mem\[3\]\[7\]
*530 mem\[4\]\[0\]
*531 mem\[4\]\[1\]
*532 mem\[4\]\[2\]
*533 mem\[4\]\[3\]
*534 mem\[4\]\[4\]
*535 mem\[4\]\[5\]
*536 mem\[4\]\[6\]
*537 mem\[4\]\[7\]
*538 mem\[5\]\[0\]
*539 mem\[5\]\[1\]
*540 mem\[5\]\[2\]
*541 mem\[5\]\[3\]
*542 mem\[5\]\[4\]
*543 mem\[5\]\[5\]
*544 mem\[5\]\[6\]
*545 mem\[5\]\[7\]
*546 mem\[6\]\[0\]
*547 mem\[6\]\[1\]
*548 mem\[6\]\[2\]
*549 mem\[6\]\[3\]
*550 mem\[6\]\[4\]
*551 mem\[6\]\[5\]
*552 mem\[6\]\[6\]
*553 mem\[6\]\[7\]
*554 mem\[7\]\[0\]
*555 mem\[7\]\[1\]
*556 mem\[7\]\[2\]
*557 mem\[7\]\[3\]
*558 mem\[7\]\[4\]
*559 mem\[7\]\[5\]
*560 mem\[7\]\[6\]
*561 mem\[7\]\[7\]
*562 mem\[8\]\[0\]
*563 mem\[8\]\[1\]
*564 mem\[8\]\[2\]
*565 mem\[8\]\[3\]
*566 mem\[8\]\[4\]
*567 mem\[8\]\[5\]
*568 mem\[8\]\[6\]
*569 mem\[8\]\[7\]
*570 mem\[9\]\[0\]
*571 mem\[9\]\[1\]
*572 mem\[9\]\[2\]
*573 mem\[9\]\[3\]
*574 mem\[9\]\[4\]
*575 mem\[9\]\[5\]
*576 mem\[9\]\[6\]
*577 mem\[9\]\[7\]
*578 rd_en
*579 rd_ptr\[0\]
*580 rd_ptr\[1\]
*581 rd_ptr\[2\]
*582 rd_ptr\[3\]
*583 rst
*584 wr_en
*585 wr_ptr\[0\]
*586 wr_ptr\[1\]
*587 wr_ptr\[2\]
*588 wr_ptr\[3\]
*1184 TAP_TAPCELL_ROW_0_0
*1185 TAP_TAPCELL_ROW_0_1
*1186 TAP_TAPCELL_ROW_0_2
*1187 TAP_TAPCELL_ROW_0_3
*1188 TAP_TAPCELL_ROW_0_4
*1189 TAP_TAPCELL_ROW_0_5
*1217 TAP_TAPCELL_ROW_10_33
*1218 TAP_TAPCELL_ROW_10_34
*1219 TAP_TAPCELL_ROW_10_35
*1220 TAP_TAPCELL_ROW_11_36
*1221 TAP_TAPCELL_ROW_11_37
*1222 TAP_TAPCELL_ROW_11_38
*1223 TAP_TAPCELL_ROW_12_39
*1224 TAP_TAPCELL_ROW_12_40
*1225 TAP_TAPCELL_ROW_12_41
*1226 TAP_TAPCELL_ROW_13_42
*1227 TAP_TAPCELL_ROW_13_43
*1228 TAP_TAPCELL_ROW_13_44
*1229 TAP_TAPCELL_ROW_14_45
*1230 TAP_TAPCELL_ROW_14_46
*1231 TAP_TAPCELL_ROW_14_47
*1232 TAP_TAPCELL_ROW_15_48
*1233 TAP_TAPCELL_ROW_15_49
*1234 TAP_TAPCELL_ROW_15_50
*1235 TAP_TAPCELL_ROW_16_51
*1236 TAP_TAPCELL_ROW_16_52
*1237 TAP_TAPCELL_ROW_16_53
*1238 TAP_TAPCELL_ROW_17_54
*1239 TAP_TAPCELL_ROW_17_55
*1240 TAP_TAPCELL_ROW_17_56
*1241 TAP_TAPCELL_ROW_18_57
*1242 TAP_TAPCELL_ROW_18_58
*1243 TAP_TAPCELL_ROW_18_59
*1244 TAP_TAPCELL_ROW_19_60
*1245 TAP_TAPCELL_ROW_19_61
*1246 TAP_TAPCELL_ROW_19_62
*1190 TAP_TAPCELL_ROW_1_6
*1191 TAP_TAPCELL_ROW_1_7
*1192 TAP_TAPCELL_ROW_1_8
*1247 TAP_TAPCELL_ROW_20_63
*1248 TAP_TAPCELL_ROW_20_64
*1249 TAP_TAPCELL_ROW_20_65
*1250 TAP_TAPCELL_ROW_21_66
*1251 TAP_TAPCELL_ROW_21_67
*1252 TAP_TAPCELL_ROW_21_68
*1253 TAP_TAPCELL_ROW_22_69
*1254 TAP_TAPCELL_ROW_22_70
*1255 TAP_TAPCELL_ROW_22_71
*1256 TAP_TAPCELL_ROW_23_72
*1257 TAP_TAPCELL_ROW_23_73
*1258 TAP_TAPCELL_ROW_23_74
*1259 TAP_TAPCELL_ROW_24_75
*1260 TAP_TAPCELL_ROW_24_76
*1261 TAP_TAPCELL_ROW_24_77
*1262 TAP_TAPCELL_ROW_25_78
*1263 TAP_TAPCELL_ROW_25_79
*1264 TAP_TAPCELL_ROW_25_80
*1265 TAP_TAPCELL_ROW_26_81
*1266 TAP_TAPCELL_ROW_26_82
*1267 TAP_TAPCELL_ROW_26_83
*1268 TAP_TAPCELL_ROW_27_84
*1269 TAP_TAPCELL_ROW_27_85
*1270 TAP_TAPCELL_ROW_27_86
*1271 TAP_TAPCELL_ROW_28_87
*1272 TAP_TAPCELL_ROW_28_88
*1273 TAP_TAPCELL_ROW_28_89
*1274 TAP_TAPCELL_ROW_29_90
*1275 TAP_TAPCELL_ROW_29_91
*1276 TAP_TAPCELL_ROW_29_92
*1194 TAP_TAPCELL_ROW_2_10
*1195 TAP_TAPCELL_ROW_2_11
*1193 TAP_TAPCELL_ROW_2_9
*1277 TAP_TAPCELL_ROW_30_93
*1278 TAP_TAPCELL_ROW_30_94
*1279 TAP_TAPCELL_ROW_30_95
*1284 TAP_TAPCELL_ROW_31_100
*1285 TAP_TAPCELL_ROW_31_101
*1280 TAP_TAPCELL_ROW_31_96
*1281 TAP_TAPCELL_ROW_31_97
*1282 TAP_TAPCELL_ROW_31_98
*1283 TAP_TAPCELL_ROW_31_99
*1196 TAP_TAPCELL_ROW_3_12
*1197 TAP_TAPCELL_ROW_3_13
*1198 TAP_TAPCELL_ROW_3_14
*1199 TAP_TAPCELL_ROW_4_15
*1200 TAP_TAPCELL_ROW_4_16
*1201 TAP_TAPCELL_ROW_4_17
*1202 TAP_TAPCELL_ROW_5_18
*1203 TAP_TAPCELL_ROW_5_19
*1204 TAP_TAPCELL_ROW_5_20
*1205 TAP_TAPCELL_ROW_6_21
*1206 TAP_TAPCELL_ROW_6_22
*1207 TAP_TAPCELL_ROW_6_23
*1208 TAP_TAPCELL_ROW_7_24
*1209 TAP_TAPCELL_ROW_7_25
*1210 TAP_TAPCELL_ROW_7_26
*1211 TAP_TAPCELL_ROW_8_27
*1212 TAP_TAPCELL_ROW_8_28
*1213 TAP_TAPCELL_ROW_8_29
*1214 TAP_TAPCELL_ROW_9_30
*1215 TAP_TAPCELL_ROW_9_31
*1216 TAP_TAPCELL_ROW_9_32
*608 _0425_
*609 _0426_
*610 _0427_
*611 _0428_
*612 _0429_
*613 _0430_
*614 _0431_
*615 _0432_
*616 _0433_
*617 _0434_
*618 _0435_
*619 _0436_
*620 _0437_
*621 _0438_
*622 _0439_
*623 _0440_
*624 _0441_
*625 _0442_
*626 _0443_
*627 _0444_
*628 _0445_
*629 _0446_
*630 _0447_
*631 _0448_
*632 _0449_
*633 _0450_
*634 _0451_
*635 _0452_
*636 _0453_
*637 _0454_
*638 _0455_
*639 _0456_
*640 _0457_
*641 _0458_
*642 _0459_
*643 _0460_
*644 _0461_
*645 _0462_
*646 _0463_
*647 _0464_
*648 _0465_
*649 _0466_
*650 _0467_
*651 _0468_
*652 _0469_
*653 _0470_
*654 _0471_
*655 _0472_
*656 _0473_
*657 _0474_
*658 _0475_
*659 _0476_
*660 _0477_
*661 _0478_
*662 _0479_
*663 _0480_
*664 _0481_
*665 _0482_
*666 _0483_
*667 _0484_
*668 _0485_
*669 _0486_
*670 _0487_
*671 _0488_
*672 _0489_
*673 _0490_
*674 _0491_
*675 _0492_
*676 _0493_
*677 _0494_
*678 _0495_
*679 _0496_
*680 _0497_
*681 _0498_
*682 _0499_
*683 _0500_
*684 _0501_
*685 _0502_
*686 _0503_
*687 _0504_
*688 _0505_
*689 _0506_
*690 _0507_
*691 _0508_
*692 _0509_
*693 _0510_
*694 _0511_
*695 _0512_
*696 _0513_
*697 _0514_
*698 _0515_
*699 _0516_
*700 _0517_
*701 _0518_
*702 _0519_
*703 _0520_
*704 _0521_
*705 _0522_
*706 _0523_
*707 _0524_
*708 _0525_
*709 _0526_
*710 _0527_
*711 _0528_
*712 _0529_
*713 _0530_
*714 _0531_
*715 _0532_
*716 _0533_
*717 _0534_
*718 _0535_
*719 _0536_
*720 _0537_
*721 _0538_
*722 _0539_
*723 _0540_
*724 _0541_
*725 _0542_
*726 _0543_
*727 _0544_
*728 _0545_
*729 _0546_
*730 _0547_
*731 _0548_
*732 _0549_
*733 _0550_
*734 _0551_
*735 _0552_
*736 _0553_
*737 _0554_
*738 _0555_
*739 _0556_
*740 _0557_
*741 _0558_
*742 _0559_
*743 _0560_
*744 _0561_
*745 _0562_
*746 _0563_
*747 _0564_
*748 _0565_
*749 _0566_
*750 _0567_
*751 _0568_
*752 _0569_
*753 _0570_
*754 _0571_
*755 _0572_
*756 _0573_
*757 _0574_
*758 _0575_
*759 _0576_
*760 _0577_
*761 _0578_
*762 _0579_
*763 _0580_
*764 _0581_
*765 _0582_
*766 _0583_
*767 _0584_
*768 _0585_
*769 _0586_
*770 _0587_
*771 _0588_
*772 _0589_
*773 _0590_
*774 _0591_
*775 _0592_
*776 _0593_
*777 _0594_
*778 _0595_
*779 _0596_
*780 _0597_
*781 _0598_
*782 _0599_
*783 _0600_
*784 _0601_
*785 _0602_
*786 _0603_
*787 _0604_
*788 _0605_
*789 _0606_
*790 _0607_
*791 _0608_
*792 _0609_
*793 _0610_
*794 _0611_
*795 _0612_
*796 _0613_
*797 _0614_
*798 _0615_
*799 _0616_
*800 _0617_
*801 _0618_
*802 _0619_
*803 _0620_
*804 _0621_
*805 _0622_
*806 _0623_
*807 _0624_
*808 _0625_
*809 _0626_
*810 _0627_
*811 _0628_
*812 _0629_
*813 _0630_
*814 _0631_
*815 _0632_
*816 _0633_
*817 _0634_
*818 _0635_
*819 _0636_
*820 _0637_
*821 _0638_
*822 _0639_
*823 _0640_
*824 _0641_
*825 _0642_
*826 _0643_
*827 _0644_
*828 _0645_
*829 _0646_
*830 _0647_
*831 _0648_
*832 _0649_
*833 _0650_
*834 _0651_
*835 _0652_
*836 _0653_
*837 _0654_
*838 _0655_
*839 _0656_
*840 _0657_
*841 _0658_
*842 _0659_
*843 _0660_
*844 _0661_
*845 _0662_
*846 _0663_
*847 _0664_
*848 _0665_
*849 _0666_
*850 _0667_
*851 _0668_
*852 _0669_
*853 _0670_
*854 _0671_
*855 _0672_
*856 _0673_
*857 _0674_
*858 _0675_
*859 _0676_
*860 _0677_
*861 _0678_
*862 _0679_
*863 _0680_
*864 _0681_
*865 _0682_
*866 _0683_
*867 _0684_
*868 _0685_
*869 _0686_
*870 _0687_
*871 _0688_
*872 _0689_
*873 _0690_
*874 _0691_
*875 _0692_
*876 _0693_
*877 _0694_
*878 _0695_
*879 _0696_
*880 _0697_
*881 _0698_
*882 _0699_
*883 _0700_
*884 _0701_
*885 _0702_
*886 _0703_
*887 _0704_
*888 _0705_
*889 _0706_
*890 _0707_
*891 _0708_
*892 _0709_
*893 _0710_
*894 _0711_
*895 _0712_
*896 _0713_
*897 _0714_
*898 _0715_
*899 _0716_
*900 _0717_
*901 _0718_
*902 _0719_
*903 _0720_
*904 _0721_
*905 _0722_
*906 _0723_
*907 _0724_
*908 _0725_
*909 _0726_
*910 _0727_
*911 _0728_
*912 _0729_
*913 _0730_
*914 _0731_
*915 _0732_
*916 _0733_
*917 _0734_
*918 _0735_
*919 _0736_
*920 _0737_
*921 _0738_
*922 _0739_
*923 _0740_
*924 _0741_
*925 _0742_
*926 _0743_
*927 _0744_
*928 _0745_
*929 _0746_
*930 _0747_
*931 _0748_
*932 _0749_
*933 _0750_
*934 _0751_
*935 _0752_
*936 _0753_
*937 _0754_
*938 _0755_
*939 _0756_
*940 _0757_
*941 _0758_
*942 _0759_
*943 _0760_
*944 _0761_
*945 _0762_
*946 _0763_
*947 _0764_
*948 _0765_
*949 _0766_
*950 _0767_
*951 _0768_
*952 _0769_
*953 _0770_
*954 _0771_
*955 _0772_
*956 _0773_
*957 _0774_
*958 _0775_
*959 _0776_
*960 _0777_
*961 _0778_
*962 _0779_
*963 _0780_
*964 _0781_
*965 _0782_
*966 _0783_
*967 _0784_
*968 _0785_
*969 _0786_
*970 _0787_
*971 _0788_
*972 _0789_
*973 _0790_
*974 _0791_
*975 _0792_
*976 _0793_
*977 _0794_
*978 _0795_
*979 _0796_
*980 _0797_
*981 _0798_
*982 _0799_
*983 _0800_
*984 _0801_
*985 _0802_
*986 _0803_
*987 _0804_
*988 _0805_
*989 _0806_
*990 _0807_
*991 _0808_
*992 _0809_
*993 _0810_
*994 _0811_
*995 _0812_
*996 _0813_
*997 _0814_
*998 _0815_
*999 _0816_
*1000 _0817_
*1001 _0818_
*1002 _0819_
*1003 _0820_
*1004 _0821_
*1005 _0822_
*1006 _0823_
*1007 _0824_
*1008 _0825_
*1009 _0826_
*1010 _0827_
*1011 _0828_
*1012 _0829_
*1013 _0830_
*1014 _0831_
*1015 _0832_
*1016 _0833_
*1017 _0834_
*1018 _0835_
*1019 _0836_
*1020 _0837_
*1021 _0838_
*1022 _0839_
*1023 _0840_
*1024 _0841_
*1025 _0842_
*1026 _0843_
*1027 _0844_
*1028 _0845_
*1029 _0846_
*1030 _0847_
*1031 _0848_
*1032 _0849_
*1033 _0850_
*1034 _0851_
*1035 _0852_
*1036 _0853_
*1037 _0854_
*1038 _0855_
*1039 _0856_
*1040 _0857_
*1041 _0858_
*1042 _0859_
*1043 _0860_
*1044 _0861_
*1045 _0862_
*1046 _0863_
*1047 _0864_
*1048 _0865_
*1049 _0866_
*1050 _0867_
*1051 _0868_
*1052 _0869_
*1053 _0870_
*1054 _0871_
*1055 _0872_
*1056 _0873_
*1057 _0874_
*1058 _0875_
*1059 _0876_
*1060 _0877_
*1061 _0878_
*1062 _0879_
*1063 _0880_
*1064 _0881_
*1065 _0882_
*1066 _0883_
*1067 _0884_
*1068 _0885_
*1069 _0886_
*1070 _0887_
*1071 _0888_
*1072 _0889_
*1073 _0890_
*1074 _0891_
*1075 _0892_
*1076 _0893_
*1077 _0894_
*1078 _0895_
*1079 _0896_
*1080 _0897_
*1081 _0898_
*1082 _0899_
*1083 _0900_
*1084 _0901_
*1085 _0902_
*1086 _0903_
*1087 _0904_
*1088 _0905_
*1089 _0906_
*1090 _0907_
*1091 _0908_
*1092 _0909_
*1093 _0910_
*1094 _0911_
*1095 _0912_
*1096 _0913_
*1097 _0914_
*1098 _0915_
*1099 _0916_
*1100 _0917_
*1101 _0918_
*1102 _0919_
*1103 _0920_
*1104 _0921_
*1105 _0922_
*1106 _0923_
*1107 _0924_
*1108 _0925_
*1109 _0926_
*1110 _0927_
*1111 _0928_
*1112 _0929_
*1113 _0930_
*1114 _0931_
*1115 _0932_
*1116 _0933_
*1117 _0934_
*1118 _0935_
*1119 _0936_
*1120 _0937_
*1121 _0938_
*1122 _0939_
*1123 _0940_
*1124 _0941_
*1125 _0942_
*1126 _0943_
*1127 _0944_
*1128 _0945_
*1129 _0946_
*1130 _0947_
*1131 _0948_
*1132 _0949_
*1133 _0950_
*1134 _0951_
*1135 _0952_
*1136 _0953_
*1137 _0954_
*1138 _0955_
*1139 _0956_
*1140 _0957_
*1141 _0958_
*1142 _0959_
*1143 _0960_
*1144 _0961_
*1145 _0962_
*1146 _0963_
*1147 _0964_
*1148 _0965_
*1149 _0966_
*1150 _0967_
*1151 _0968_
*1152 _0969_
*1153 _0970_
*1154 _0971_
*1155 _0972_
*1156 _0973_
*1157 _0974_
*1158 _0975_
*1159 _0976_
*1160 _0977_
*1161 _0978_
*1162 _0979_
*1163 _0980_
*1164 _0981_
*1165 _0982_
*1166 _0983_
*1167 _0984_
*1168 _0985_
*1169 _0986_
*1170 _0987_
*1171 _0988_
*1172 _0989_
*1173 _0990_
*1174 _0991_
*1175 _0992_
*1176 _0993_
*1177 _0994_
*1178 _0995_
*1179 _0996_
*1180 _0997_
*1181 _0998_
*1182 _0999_
*1183 _1000_
*1286 clkbuf_0_clk
*1287 clkbuf_4_0_0_clk
*1297 clkbuf_4_10_0_clk
*1298 clkbuf_4_11_0_clk
*1299 clkbuf_4_12_0_clk
*1300 clkbuf_4_13_0_clk
*1301 clkbuf_4_14_0_clk
*1302 clkbuf_4_15_0_clk
*1288 clkbuf_4_1_0_clk
*1289 clkbuf_4_2_0_clk
*1290 clkbuf_4_3_0_clk
*1291 clkbuf_4_4_0_clk
*1292 clkbuf_4_5_0_clk
*1293 clkbuf_4_6_0_clk
*1294 clkbuf_4_7_0_clk
*1295 clkbuf_4_8_0_clk
*1296 clkbuf_4_9_0_clk
*1303 clkload0
*1304 clkload1
*1313 clkload10
*1314 clkload11
*1315 clkload12
*1316 clkload13
*1317 clkload14
*1305 clkload2
*1306 clkload3
*1307 clkload4
*1308 clkload5
*1309 clkload6
*1310 clkload7
*1311 clkload8
*1312 clkload9

*PORTS
clk I
data_in[0] I
data_in[1] I
data_in[2] I
data_in[3] I
data_in[4] I
data_in[5] I
data_in[6] I
data_in[7] I
data_out[0] O
data_out[1] O
data_out[2] O
data_out[3] O
data_out[4] O
data_out[5] O
data_out[6] O
data_out[7] O
empty O
full O
rd_en I
rst I
wr_en I

*D_NET *1 0.000185146
*CONN
*I *1182:D I *D sky130_fd_sc_hd__dfxtp_1
*I *622:Y O *D sky130_fd_sc_hd__o21ai_0
*CAP
1 *1182:D 9.25729e-05
2 *622:Y 9.25729e-05
3 *1182:D *162:65 0
4 *1182:D *162:80 0
5 *1182:D *251:102 0
*RES
1 *622:Y *1182:D 29.6402 
*END

*D_NET *2 0.000211848
*CONN
*I *1181:D I *D sky130_fd_sc_hd__dfxtp_1
*I *625:Y O *D sky130_fd_sc_hd__o21ai_0
*CAP
1 *1181:D 0.000105924
2 *625:Y 0.000105924
*RES
1 *625:Y *1181:D 29.9438 
*END

*D_NET *3 0.000832028
*CONN
*I *1180:D I *D sky130_fd_sc_hd__dfxtp_1
*I *628:Y O *D sky130_fd_sc_hd__o21ai_0
*CAP
1 *1180:D 0.000416014
2 *628:Y 0.000416014
3 *1180:D *628:A1 0
4 *1180:D *628:B1 0
5 *1180:D *988:A3 0
6 *1180:D *591:27 0
*RES
1 *628:Y *1180:D 36.5866 
*END

*D_NET *4 0.000263863
*CONN
*I *1179:D I *D sky130_fd_sc_hd__dfxtp_1
*I *631:Y O *D sky130_fd_sc_hd__o21ai_0
*CAP
1 *1179:D 0.000131932
2 *631:Y 0.000131932
3 *1179:D *631:B1 0
4 *1179:D *1094:D 0
5 *1179:D *267:109 0
6 *1179:D *275:112 0
*RES
1 *631:Y *1179:D 30.4616 
*END

*D_NET *5 0.000263863
*CONN
*I *1178:D I *D sky130_fd_sc_hd__dfxtp_1
*I *634:Y O *D sky130_fd_sc_hd__o21ai_0
*CAP
1 *1178:D 0.000131932
2 *634:Y 0.000131932
3 *1178:D *773:A1 0
4 *1178:D *818:B1 0
5 *1178:D *160:78 0
*RES
1 *634:Y *1178:D 30.4616 
*END

*D_NET *6 0.000330524
*CONN
*I *1177:D I *D sky130_fd_sc_hd__dfxtp_1
*I *637:Y O *D sky130_fd_sc_hd__o21ai_0
*CAP
1 *1177:D 0.000165262
2 *637:Y 0.000165262
3 *1177:D *1092:D 0
4 *1177:D *172:62 0
5 *1177:D *172:79 0
6 *1177:D *357:18 0
7 *1177:D *596:24 0
*RES
1 *637:Y *1177:D 31.158 
*END

*D_NET *7 0.000305211
*CONN
*I *1176:D I *D sky130_fd_sc_hd__dfxtp_1
*I *640:Y O *D sky130_fd_sc_hd__o21ai_0
*CAP
1 *1176:D 0.000152606
2 *640:Y 0.000152606
3 *1176:D *640:B1 0
4 *1176:D *340:34 0
*RES
1 *640:Y *1176:D 30.9438 
*END

*D_NET *8 0.00024257
*CONN
*I *1174:D I *D sky130_fd_sc_hd__dfxtp_1
*I *653:Y O *D sky130_fd_sc_hd__a31oi_1
*CAP
1 *1174:D 0.000121285
2 *653:Y 0.000121285
3 *1174:D *663:B1 0
4 *1174:D *583:284 0
*RES
1 *653:Y *1174:D 21.0688 
*END

*D_NET *9 0.000330602
*CONN
*I *1173:D I *D sky130_fd_sc_hd__dfxtp_1
*I *658:Y O *D sky130_fd_sc_hd__nor2_1
*CAP
1 *1173:D 0.000165301
2 *658:Y 0.000165301
3 *1173:D *658:B 0
4 *1173:D *1066:CLK 0
5 *1173:D *179:44 0
*RES
1 *658:Y *1173:D 31.158 
*END

*D_NET *10 0.000319494
*CONN
*I *1172:D I *D sky130_fd_sc_hd__dfxtp_1
*I *663:Y O *D sky130_fd_sc_hd__a21oi_1
*CAP
1 *1172:D 0.000159747
2 *663:Y 0.000159747
3 *1172:D *659:A 0
4 *1172:D *1172:CLK 0
5 *1172:D *428:16 0
*RES
1 *663:Y *1172:D 31.1402 
*END

*D_NET *11 0.000253393
*CONN
*I *1171:D I *D sky130_fd_sc_hd__dfxtp_1
*I *666:Y O *D sky130_fd_sc_hd__a21oi_1
*CAP
1 *1171:D 0.000126696
2 *666:Y 0.000126696
3 *1171:D *666:A2 0
4 *1171:D *602:93 0
5 *1171:D *602:106 0
*RES
1 *666:Y *1171:D 30.4259 
*END

*D_NET *12 0.000305369
*CONN
*I *1169:D I *D sky130_fd_sc_hd__dfxtp_1
*I *670:Y O *D sky130_fd_sc_hd__nor2_1
*CAP
1 *1169:D 0.000152684
2 *670:Y 0.000152684
3 *1169:D *668:C 0
4 *1169:D *669:A 0
5 *1169:D *166:153 0
6 *1169:D *581:233 0
7 *1169:D *583:210 0
8 *1169:D *594:132 0
*RES
1 *670:Y *1169:D 30.9438 
*END

*D_NET *13 0.000253393
*CONN
*I *1168:D I *D sky130_fd_sc_hd__dfxtp_1
*I *672:Y O *D sky130_fd_sc_hd__nor3_1
*CAP
1 *1168:D 0.000126696
2 *672:Y 0.000126696
3 *1168:D *175:66 0
4 *1168:D *580:8 0
5 *1168:D *594:132 0
*RES
1 *672:Y *1168:D 30.4259 
*END

*D_NET *14 0.000539404
*CONN
*I *1167:D I *D sky130_fd_sc_hd__dfxtp_1
*I *674:Y O *D sky130_fd_sc_hd__nor2_1
*CAP
1 *1167:D 0.000269702
2 *674:Y 0.000269702
3 *1167:D *1066:CLK 0
4 *1167:D *179:44 0
5 *1167:D *447:12 0
*RES
1 *674:Y *1167:D 33.533 
*END

*D_NET *15 0.000195511
*CONN
*I *1165:D I *D sky130_fd_sc_hd__dfxtp_1
*I *678:X O *D sky130_fd_sc_hd__and2_0
*CAP
1 *1165:D 9.77553e-05
2 *678:X 9.77553e-05
3 *1165:D *995:B 0
4 *1165:D *176:184 0
*RES
1 *678:X *1165:D 20.6402 
*END

*D_NET *16 0.00113812
*CONN
*I *1164:D I *D sky130_fd_sc_hd__dfxtp_1
*I *682:Y O *D sky130_fd_sc_hd__a21oi_1
*CAP
1 *1164:D 0.000569062
2 *682:Y 0.000569062
3 *1164:D *936:B1 0
4 *1164:D *166:140 0
5 *1164:D *300:18 0
6 *1164:D *581:18 0
7 *1164:D *591:326 0
*RES
1 *682:Y *1164:D 39.8187 
*END

*D_NET *17 0.000657684
*CONN
*I *1163:D I *D sky130_fd_sc_hd__dfxtp_1
*I *684:Y O *D sky130_fd_sc_hd__nor2_1
*CAP
1 *1163:D 0.000328842
2 *684:Y 0.000328842
3 *1163:D *929:B 0
4 *1163:D *937:B1 0
5 *1163:D *1163:CLK 0
6 *1163:D *176:130 0
7 *1163:D *332:22 0
8 *1163:D *581:18 0
9 *1163:D *581:20 0
10 *1163:D *581:26 0
*RES
1 *684:Y *1163:D 34.6937 
*END

*D_NET *18 0.000515492
*CONN
*I *1161:D I *D sky130_fd_sc_hd__dfxtp_1
*I *688:Y O *D sky130_fd_sc_hd__o21ai_0
*CAP
1 *1161:D 0.000257746
2 *688:Y 0.000257746
3 *1161:D *1161:CLK 0
4 *1161:D *162:10 0
5 *1161:D *162:20 0
6 *1161:D *162:44 0
7 *1161:D *242:50 0
*RES
1 *688:Y *1161:D 33.2116 
*END

*D_NET *19 0.000212447
*CONN
*I *1160:D I *D sky130_fd_sc_hd__dfxtp_1
*I *690:Y O *D sky130_fd_sc_hd__o21ai_0
*CAP
1 *1160:D 0.000106224
2 *690:Y 0.000106224
3 *1160:D *690:B1 0
4 *1160:D *1017:A 0
5 *1160:D *162:10 0
6 *1160:D *366:24 0
*RES
1 *690:Y *1160:D 29.9259 
*END

*D_NET *20 0.00073324
*CONN
*I *1159:D I *D sky130_fd_sc_hd__dfxtp_1
*I *692:Y O *D sky130_fd_sc_hd__o21ai_0
*CAP
1 *1159:D 0.00036662
2 *692:Y 0.00036662
3 *1159:D *691:A 0
4 *1159:D *692:B1 0
5 *1159:D *1055:D 0
6 *1159:D *1125:D 0
7 *1159:D *166:18 0
8 *1159:D *242:103 0
*RES
1 *692:Y *1159:D 35.8009 
*END

*D_NET *21 0.000195511
*CONN
*I *1158:D I *D sky130_fd_sc_hd__dfxtp_1
*I *694:Y O *D sky130_fd_sc_hd__o21ai_0
*CAP
1 *1158:D 9.77553e-05
2 *694:Y 9.77553e-05
3 *1158:D *694:B1 0
4 *1158:D *754:A 0
5 *1158:D *1158:CLK 0
*RES
1 *694:Y *1158:D 20.6402 
*END

*D_NET *22 0.000234772
*CONN
*I *1157:D I *D sky130_fd_sc_hd__dfxtp_1
*I *696:Y O *D sky130_fd_sc_hd__o21ai_0
*CAP
1 *1157:D 0.000117386
2 *696:Y 0.000117386
3 *1157:D *753:A1 0
4 *1157:D *757:A1 0
5 *1157:D *172:10 0
*RES
1 *696:Y *1157:D 30.158 
*END

*D_NET *23 0.000156152
*CONN
*I *1156:D I *D sky130_fd_sc_hd__dfxtp_1
*I *698:Y O *D sky130_fd_sc_hd__o21ai_0
*CAP
1 *1156:D 7.80759e-05
2 *698:Y 7.80759e-05
3 *1156:D *698:B1 0
*RES
1 *698:Y *1156:D 20.2295 
*END

*D_NET *24 0.000381629
*CONN
*I *1155:D I *D sky130_fd_sc_hd__dfxtp_1
*I *700:Y O *D sky130_fd_sc_hd__o21ai_0
*CAP
1 *1155:D 0.000190815
2 *700:Y 0.000190815
3 *1155:D *761:B1 0
4 *1155:D *166:12 0
5 *1155:D *209:46 0
*RES
1 *700:Y *1155:D 31.908 
*END

*D_NET *25 0.00023863
*CONN
*I *1153:D I *D sky130_fd_sc_hd__dfxtp_1
*I *704:Y O *D sky130_fd_sc_hd__o21ai_0
*CAP
1 *1153:D 0.000119315
2 *704:Y 0.000119315
3 *1153:D *218:133 0
4 *1153:D *599:70 0
*RES
1 *704:Y *1153:D 30.2473 
*END

*D_NET *26 0.000156152
*CONN
*I *1152:D I *D sky130_fd_sc_hd__dfxtp_1
*I *706:Y O *D sky130_fd_sc_hd__o21ai_0
*CAP
1 *1152:D 7.80759e-05
2 *706:Y 7.80759e-05
3 *1152:D *706:A1 0
4 *1152:D *535:42 0
*RES
1 *706:Y *1152:D 20.2295 
*END

*D_NET *27 0.000580242
*CONN
*I *1151:D I *D sky130_fd_sc_hd__dfxtp_1
*I *708:Y O *D sky130_fd_sc_hd__o21ai_0
*CAP
1 *1151:D 0.000290121
2 *708:Y 0.000290121
3 *1151:D *707:A 0
4 *1151:D *708:B1 0
5 *1151:D *1048:CLK 0
6 *1151:D *218:210 0
7 *1151:D *226:234 0
8 *1151:D *356:16 0
9 *1151:D *379:32 0
10 *1151:D *379:38 0
11 *1151:D *604:51 0
*RES
1 *708:Y *1151:D 33.8366 
*END

*D_NET *28 0.000363884
*CONN
*I *1150:D I *D sky130_fd_sc_hd__dfxtp_1
*I *710:Y O *D sky130_fd_sc_hd__o21ai_0
*CAP
1 *1150:D 0.000181942
2 *710:Y 0.000181942
3 *1150:D *710:A1 0
4 *1150:D *710:B1 0
5 *1150:D *740:B1 0
6 *1150:D *218:133 0
7 *1150:D *226:132 0
8 *1150:D *234:136 0
9 *1150:D *379:106 0
*RES
1 *710:Y *1150:D 31.4973 
*END

*D_NET *29 0.000541521
*CONN
*I *1149:D I *D sky130_fd_sc_hd__dfxtp_1
*I *712:Y O *D sky130_fd_sc_hd__o21ai_0
*CAP
1 *1149:D 0.000270761
2 *712:Y 0.000270761
3 *1149:D *711:A 0
4 *1149:D *170:81 0
5 *1149:D *170:87 0
6 *1149:D *598:71 0
*RES
1 *712:Y *1149:D 33.408 
*END

*D_NET *30 0.000221179
*CONN
*I *1148:D I *D sky130_fd_sc_hd__dfxtp_1
*I *714:Y O *D sky130_fd_sc_hd__o21ai_0
*CAP
1 *1148:D 0.00011059
2 *714:Y 0.00011059
3 *1148:D *714:A1 0
4 *1148:D *340:34 0
*RES
1 *714:Y *1148:D 21.35 
*END

*D_NET *31 0.000429316
*CONN
*I *1147:D I *D sky130_fd_sc_hd__dfxtp_1
*I *716:Y O *D sky130_fd_sc_hd__o21ai_0
*CAP
1 *1147:D 0.000214658
2 *716:Y 0.000214658
3 *1147:D *746:A2 0
4 *1147:D *746:B1 0
5 *1147:D *234:14 0
6 *1147:D *580:164 0
*RES
1 *716:Y *1147:D 32.1759 
*END

*D_NET *32 0.0007374
*CONN
*I *1145:D I *D sky130_fd_sc_hd__dfxtp_1
*I *719:Y O *D sky130_fd_sc_hd__o21ai_0
*CAP
1 *1145:D 0.0003687
2 *719:Y 0.0003687
3 *1145:D *719:B1 0
4 *1145:D *883:A3 0
5 *1145:D *162:93 0
6 *1145:D *164:122 0
*RES
1 *719:Y *1145:D 35.8187 
*END

*D_NET *33 0.000383291
*CONN
*I *1144:D I *D sky130_fd_sc_hd__dfxtp_1
*I *721:Y O *D sky130_fd_sc_hd__o21ai_0
*CAP
1 *1144:D 0.000191645
2 *721:Y 0.000191645
3 *1144:D *721:B1 0
4 *1144:D *533:16 0
*RES
1 *721:Y *1144:D 31.783 
*END

*D_NET *34 0.000803005
*CONN
*I *1143:D I *D sky130_fd_sc_hd__dfxtp_1
*I *723:Y O *D sky130_fd_sc_hd__o21ai_0
*CAP
1 *1143:D 0.000401502
2 *723:Y 0.000401502
3 *1143:D *723:A1 0
4 *1143:D *723:A2 0
5 *1143:D *723:B1 0
6 *1143:D *834:A1 0
7 *1143:D *379:38 0
8 *1143:D *535:42 0
*RES
1 *723:Y *1143:D 26.9795 
*END

*D_NET *35 0.000383658
*CONN
*I *1142:D I *D sky130_fd_sc_hd__dfxtp_1
*I *725:Y O *D sky130_fd_sc_hd__o21ai_0
*CAP
1 *1142:D 0.000191829
2 *725:Y 0.000191829
3 *1142:D *162:151 0
4 *1142:D *226:132 0
5 *1142:D *579:233 0
*RES
1 *725:Y *1142:D 31.7607 
*END

*D_NET *36 0.000431663
*CONN
*I *1141:D I *D sky130_fd_sc_hd__dfxtp_1
*I *727:Y O *D sky130_fd_sc_hd__o21ai_0
*CAP
1 *1141:D 0.000215832
2 *727:Y 0.000215832
3 *1141:D *712:A2 0
4 *1141:D *712:B1 0
5 *1141:D *1141:CLK 0
6 *1141:D *226:115 0
7 *1141:D *531:10 0
*RES
1 *727:Y *1141:D 23.1045 
*END

*D_NET *37 0.000156152
*CONN
*I *1140:D I *D sky130_fd_sc_hd__dfxtp_1
*I *729:Y O *D sky130_fd_sc_hd__o21ai_0
*CAP
1 *1140:D 7.80759e-05
2 *729:Y 7.80759e-05
3 *1140:D *1140:CLK 0
4 *1140:D *218:47 0
5 *1140:D *379:8 0
*RES
1 *729:Y *1140:D 20.2295 
*END

*D_NET *38 0.000501406
*CONN
*I *1139:D I *D sky130_fd_sc_hd__dfxtp_1
*I *731:Y O *D sky130_fd_sc_hd__o21ai_0
*CAP
1 *1139:D 0.000250703
2 *731:Y 0.000250703
3 *1139:D *731:B1 0
4 *1139:D *1043:D 0
5 *1139:D *292:66 0
6 *1139:D *387:87 0
*RES
1 *731:Y *1139:D 33.0152 
*END

*D_NET *39 0.00031349
*CONN
*I *1137:D I *D sky130_fd_sc_hd__dfxtp_1
*I *734:Y O *D sky130_fd_sc_hd__o21ai_0
*CAP
1 *1137:D 0.000156745
2 *734:Y 0.000156745
3 *1137:D *964:A2 0
4 *1137:D *1142:CLK 0
5 *1137:D *599:74 0
6 *1137:D *599:110 0
*RES